&clm_inparm
 albice = 0.80,0.55
 co2_type = 'diagnostic'
 create_crop_landunit = .false.
 dtime = 1800
 fatmlndfrc = '/glade/p/cesmdata/cseg/inputdata/share/domains/domain.lnd.fv1.9x2.5_gx1v6.090206.nc'
 finidat = '/glade/p/cesmdata/cseg/inputdata/ccsm4_init/b40.1850.track1.2deg.003/year_401/b40.1850.track1.2deg.003.clm2.r.0401-01-01-00000.nc'
 fpftcon = '/glade/p/cesmdata/cseg/inputdata/lnd/clm2/pftdata/pft-physiology.clm40.c130424.nc'
 fsnowaging = '/glade/p/cesmdata/cseg/inputdata/lnd/clm2/snicardata/snicar_drdt_bst_fit_60_c070416.nc'
 fsnowoptics = '/glade/p/cesmdata/cseg/inputdata/lnd/clm2/snicardata/snicar_optics_5bnd_c090915.nc'
 fsurdat = '/glade/p/cesmdata/cseg/inputdata/lnd/clm2/surfdata/surfdata_1.9x2.5_simyr1850_c091108.nc'
 maxpatch_glcmec = 0
 nsegspc = 20
 urban_hac = 'ON_WASTEHEAT'
 urban_traffic = .false.
/
&ndepdyn_nml
 ndepmapalgo = 'bilinear'
 stream_fldfilename_ndep = '/glade/p/cesmdata/cseg/inputdata/lnd/clm2/ndepdata/fndep_clm_hist_simyr1849-2006_1.9x2.5_c100428.nc'
 stream_year_first_ndep = 1850
 stream_year_last_ndep = 1850
/
#!--------------------------------------------------------------------------------------------------------------------------
#! lnd_in:: Comment:
#! This namelist was created using the following command-line:
#!     /glade/p/work/pnichols/cesm1_5_alpha04c/components/clm/bld/CLM build-namelist -infile /glade/p/work/pnichols/cesm1_5_alpha04c/cime/scripts/ERS_PT.f19_g16.F1850CNCHM.yellowstone_intel.151223-114741/Buildconf/clmconf/namelist -csmdata /glade/p/cesmdata/cseg/inputdata -inputdata /glade/p/work/pnichols/cesm1_5_alpha04c/cime/scripts/ERS_PT.f19_g16.F1850CNCHM.yellowstone_intel.151223-114741/Buildconf/clm.input_data_list -ignore_ic_year -namelist  &clm_inparm  start_ymd=00010101
#!   / -use_case 1850_control -res 1.9x2.5 -clm_start_type default -envxml_dir /glade/p/work/pnichols/cesm1_5_alpha04c/cime/scripts/ERS_PT.f19_g16.F1850CNCHM.yellowstone_intel.151223-114741 -l_ncpl 48 -lnd_frac /glade/p/cesmdata/cseg/inputdata/share/domains/domain.lnd.fv1.9x2.5_gx1v6.090206.nc -glc_nec 0 -co2_ppmv 284.7 -co2_type diagnostic -config /glade/p/work/pnichols/cesm1_5_alpha04c/cime/scripts/ERS_PT.f19_g16.F1850CNCHM.yellowstone_intel.151223-114741/Buildconf/clmconf/config_cache.xml
#! For help on options use: /glade/p/work/pnichols/cesm1_5_alpha04c/components/clm/bld/CLM build-namelist -help
#!--------------------------------------------------------------------------------------------------------------------------
